   20

Au    0.0223538747    0.0225300451   -0.2798451299
Au   -0.0341516639    0.2051555394    7.1801073615
Au    2.9146234714    1.6739805667    2.2288262095
Au    0.0158008284    3.3496825022    4.5893584684
Au    2.9055323385    0.0234412251   -0.2773047580
Au    2.8634619938    0.0973170621    7.1550872273
Au    0.0263269530    1.6708741053    2.2035458195
Au    2.9320304785    3.3503909220    4.6234666439
Au    1.4739890497    4.1776747084    2.1810931799
Au    4.3676739180    0.8424646709    4.6842609630
Au    1.4647174483    2.5159246962   -0.2788078051
Au    1.4026703047    2.6418762522    7.0036404373
Au    4.3514561090    4.1739013615    2.1825587540
Au    1.4628907534    0.8317742694    4.6497213872
Au    4.3467936799    2.5171797618   -0.2806631022
Au    4.2179412996    2.5947029385    7.2402558202
 C    0.1502336940   -0.3978341040    9.1586125828
 O    0.6955125034    0.0539367376   10.1155616129
 C    2.7185910814    0.0588458278   10.0265693746
 O    3.2951538071   -0.4447394150   10.9102580617
