17 
211_COsb optimized 
Au       2.939829258   0.275995228   0.099104975
Au      -0.015484562   4.863157205  -1.518396149
Au       2.879073915   2.234362462  -3.665849249
Au      -0.014999816  -0.287546878  -4.900533505
Au      -0.062889723   0.278757992   0.101114166
Au       2.886502263   4.862052741  -1.522171019
Au      -0.006880679   2.234436274  -3.666912681
Au       2.888896742  -0.286799182  -4.901208710
Au       4.319326879   2.574766184  -0.868776101
Au       1.435883102   0.037327647  -2.470234044
Au       4.320643008   4.454843882  -4.428213138
Au       1.434918163   2.576228609  -1.021491683
Au       4.320046125   0.073186879  -2.404525819
Au       1.436766783   4.461523678  -4.433349068
C        1.438296992   0.052851083   1.541465738
O        1.437651550  -0.150291805   2.696208287
