   24
5
Au    0.0000000000   -0.0043930182   -0.1238789574
Au    0.0000000000    0.0514279558    5.9386692465
Au    2.8837580000    0.0000797622    2.7354399410
Au    2.8837580000    4.0784665600    2.7177433194
Au    0.0000000000    4.0796391331   -0.1498995537
Au    0.0000000000    4.0708135911    5.7383390736
Au    1.4420523738    2.0414644412    1.1794199042
Au    4.3297598939    2.0354304249    4.2783390436
Au    4.3399473627    6.1305533742    4.2843474793
Au    1.4465382522    6.1088064172    1.1783187262
Au    4.3254636262    2.0414644412    1.1794199042
Au    1.4377561061    2.0354304249    4.2783390436
Au    1.4275686373    6.1305533742    4.2843474793
Au    4.3209777478    6.1088064172    1.1783187262
Au    0.0000000000    0.0002276106    2.8156077929
Au    2.8837580000   -0.0010919195   -0.1670013717
Au    2.8837580000   -0.0034604107    5.6607669997
Au    2.8837580000    4.0740507198   -0.1948219301
Au    2.8837580000    4.0828853087    5.6159745694
Au    0.0000000000    4.0743846075    2.7755801599
 C    0.0000000000    0.3442009341    7.7943195951
 O    0.0000000000    2.0976577652    8.8497181074
 C    0.0000000000    3.4132360431    8.7604029698
 O    0.0000000000    4.5392892401    9.3148754129
