   24
6
Au    0.0000000000   -0.0034885122   -0.1602030946
Au    0.0000000000    0.0033582797    5.7486639020
Au    2.8837580000    0.0027219882    2.7098277929
Au    2.8837580000    4.0738972590    2.6902076704
Au    0.0000000000    4.0781946076   -0.1903040525
Au    0.0000000000    4.0798253148    5.6255040813
Au    1.4460508164    2.0455545696    1.1414802407
Au    4.3276215115    2.0345533291    4.2418599207
Au    4.3289716071    6.1219338654    4.2329144136
Au    1.4469862385    6.1068723760    1.1447786948
Au    4.3214651836    2.0455545696    1.1414802407
Au    1.4398944885    2.0345533291    4.2418599207
Au    1.4385443929    6.1219338654    4.2329144136
Au    4.3205297615    6.1068723760    1.1447786948
Au    0.0000000000    0.0019480528    2.7500738387
Au    2.8837580000   -0.0031460967   -0.1938805611
Au    2.8837580000   -0.0045147189    5.6558609152
Au    2.8837580000    4.0773980958   -0.2328638172
Au    2.8837580000    4.0811652817    5.5866336375
Au    0.0000000000    4.0730889281    2.7158151449
 C    0.0000000000    0.0444501615    7.5694790827
 O    0.0000000000    2.3730748202    9.2366880085
 C    0.0000000000    3.7578847950    9.1986839484
 O    0.0000000000    4.8180322106    9.3292779821
