   24
2
Au    0.0000000000   -0.0013170703   -0.0171900194
Au    0.0000000000    0.0028611526    5.9015951238
Au    2.8837580000   -0.0043339240    2.7924962041
Au    2.8837580000    4.0717358172    2.7849319132
Au    0.0000000000    4.0779241153   -0.0334621509
Au    0.0000000000    4.0864240176    5.9400696655
Au    1.4490684747    2.0417362307    1.2596327092
Au    4.3324304682    2.0352406195    4.3703882715
Au    4.3331904963    6.1131406932    4.3676845989
Au    1.4493235705    6.1130631506    1.2607446732
Au    4.3184475253    2.0417362307    1.2596327092
Au    1.4350855318    2.0352406195    4.3703882715
Au    1.4343255037    6.1131406932    4.3676845989
Au    4.3181924295    6.1130631506    1.2607446732
Au    0.0000000000   -0.0003005591    2.9329660256
Au    2.8837580000    0.0000522532   -0.1131604393
Au    2.8837580000   -0.0036354343    5.6831513154
Au    2.8837580000    4.0791435908   -0.1281231058
Au    2.8837580000    4.0774968101    5.6671359999
Au    0.0000000000    4.0758843843    2.9250580867
 C    0.0000000000    0.0990706242    7.8862882347
 O    0.0000000000    0.5389493887    8.9847074683
 C    0.0000000000    4.0563220146    8.0031928158
 O    0.0000000000    4.3490830217    9.1414848667
