   24
7
Au    0.0000000000   -0.0037576570   -0.2373256730
Au    0.0000000000   -0.0077111310    5.5991595790
Au    2.8837580000    0.0049642090    2.6572956250
Au    2.8837580000    4.0709550500    2.6327777530
Au    0.0000000000    4.0773905810   -0.2720139130
Au    0.0000000000    4.0826067230    5.5237125190
Au    1.4460089670    2.0483502780    1.0734114040
Au    4.3253310600    2.0360042520    4.1745457350
Au    4.3240409380    6.1174306170    4.1572716580
Au    1.4455453840    6.1031707850    1.0788296310
Au    4.3215070330    2.0483502780    1.0734114040
Au    1.4421849400    2.0360042520    4.1745457350
Au    1.4434750620    6.1174306170    4.1572716580
Au    4.3219706160    6.1031707850    1.0788296310
Au    0.0000000000    0.0030381450    2.6580385810
Au    2.8837580000   -0.0044699290   -0.2481565280
Au    2.8837580000   -0.0061736680    5.6182992070
Au    2.8837580000    4.0780094550   -0.2964538460
Au    2.8837580000    4.0814374260    5.5298798550
Au    0.0000000000    4.0709793510    2.6263965800
 C    0.0000000000   -0.0523835530    7.4208724420
 O    0.0000000000    2.8727740290    9.5749938600
 C    0.0000000000    4.0490449420    9.5542354230
 O    0.0000000000    5.2253841600    9.5315996820
