   24

Au    2.8429445366    4.5588580902   -0.6608508297
Au   -0.0501604925    7.2506869769    0.0330404654
Au   -0.0520102095    1.2503777856    2.7040241068
Au    2.8360570990    3.9292533056    3.6421916319
Au   -0.0452283052    6.7303965816    3.7269436816
Au   -0.0369271947    4.5639160563   -0.6632544228
Au    2.8412164187    7.2567858931    0.0217375761
Au    2.8502389263    1.2351292682    2.6688540243
Au   -0.0659308838    3.9314266815    3.6621309562
Au    2.8503273164    6.7338176360    3.7357590088
Au    4.2854411390   -0.2082332175    0.6591632978
Au    1.4014054758    2.5429675807    0.6002717392
Au    4.2830313933    5.3841254224    1.6888572864
Au    1.4022924257    9.0083937088    4.1771279944
Au    1.2499608555    2.0119766598    5.1612969429
Au    1.3918796349   -0.2227625852    0.6877996586
Au    4.2890432790    2.5547114150    0.6082931572
Au    1.3987316614    5.3970738862    1.6878020752
Au    4.2886113445    9.0280925478    4.2043298220
Au    4.1822219721    2.0162487503    5.3831311034
 C    2.5935655360    1.8345288979    6.6477190033
 O    2.7909576203    2.3998369105    8.2685986199
 C    3.9489750638    1.9474192039    8.2248851028
 O    4.9125182404    1.5420733263    8.8628508989