   24

Au    2.8049184700    4.5460177860   -0.7506930750
Au   -0.0743733600    7.2444473050   -0.0805976960
Au   -0.0744006850    1.2146265930    2.5678562720
Au    2.8067315620    3.9472474730    3.5054827860
Au   -0.0691206340    6.7763163840    3.5520736960
Au   -0.0786720870    4.5538030100   -0.7726767690
Au    2.8092261960    7.2429051130   -0.1045292190
Au    2.8071970600    1.1959998970    2.5175984740
Au   -0.0760008550    3.9579083490    3.5321261010
Au    2.8111552070    6.7667549720    3.5813168050
Au    4.2595621130   -0.2229048200    0.5342370680
Au    1.3581547810    2.5490208920    0.5145524470
Au    4.2507584710    5.3928535820    1.5712271340
Au    1.3685138440    9.0267800220    4.1525202230
Au    1.2762812140    1.9966514550    5.0195075170
Au    1.3588058900   -0.2244068410    0.5347055910
Au    4.2545766790    2.5504352720    0.5189056790
Au    1.3636988920    5.3873013520    1.5685337450
Au    4.2591768160    9.0214058870    4.1451952860
Au    4.3317600160    1.9924656550    5.0016114160
 C    2.8108932540    2.1042679750    6.1644023230
 O    4.3650121650    3.1080382650    9.2422820850
 C    4.3616540050    1.9350952650    9.1458334620
 O    4.3641239850    0.7612571500    9.0592156560