   24

Au   -0.0014772164   -0.0010825019   -0.0032372958
Au    0.0102815059   -0.0005364984    5.8370734740
Au    2.8842989300    0.0011041260    2.9596400685
Au    2.8822960377    4.0750587606    2.7963094315
Au    0.0028971743    4.0782091160   -0.1087366200
Au   -0.0008279082    4.0798492904    5.7165076775
Au    1.4428395384    2.0433873683    1.2723471493
Au    4.3212426843    2.0428546568    4.3796057271
Au    4.3166815220    6.1155733019    4.3825865328
Au    1.4438897087    6.1130003837    1.2736346705
Au    4.3246174412    2.0495142626    1.2701707579
Au    1.4439770279    2.0463786736    4.3781216472
Au    1.4489159442    6.1155809216    4.3839862503
Au    4.3236599169    6.1073448731    1.2698391145
Au   -0.0024188605   -0.0001996565    2.9506349518
Au    2.8852133055    0.0008607128   -0.0071712885
Au    2.8748141995   -0.0044814954    5.9401410912
Au    2.8809080172    4.0781993077   -0.1149414917
Au    2.8840951913    4.0768436885    5.7231415460
Au    0.0003970131    4.0841107603    2.7968771792
 C    0.1170512048    0.1034668545    7.8701519425
 O    0.4410271451    0.3288872194    8.8591092742
 C    2.9985214771   -0.0399814998    7.9676215234
 O    3.0394435072   -0.3984426256    9.0775564772
