   24

Au   -0.0008566125   -0.0006734028   -0.0651636121
Au    0.0573874628    0.0208843174    5.8831964120
Au    2.8832811178   -0.0007030283    2.8411437092
Au    2.8835915430    4.0791058929    2.7738477361
Au    0.0046179956    4.0781140316   -0.1355174197
Au   -0.0011004977    4.0805645537    5.6625334376
Au    1.4444228260    2.0433712001    1.2284695833
Au    4.3306423461    2.0150171393    4.3339018122
Au    4.3294688132    6.1388357220    4.3319878693
Au    1.4447810831    6.1105404963    1.2301632433
Au    4.3230848375    2.0527211900    1.2259070687
Au    1.4464279891    2.0403142544    4.3185703972
Au    1.4420449996    6.1312234711    4.3309881199
Au    4.3218845823    6.1039438552    1.2216855566
Au   -0.0021878506   -0.0012909977    2.8596179529
Au    2.8845503779   -0.0000098155   -0.0797790722
Au    2.9044250114    0.0051574357    5.8588280337
Au    2.8793382560    4.0776149547   -0.1514193034
Au    2.8875101190    4.0805347105    5.6685375556
Au   -0.0022708691    4.0787575280    2.7664047756
 C    0.1259429213    0.1216076242    7.7858545132
 O    1.5319588333    0.7143403879    8.6669391276
 C    2.4587731966    0.0324667870    8.5822856412
 O    3.1934297227   -0.9069383078    9.1711343453
