   24

Au   -0.0000065580   -0.0000460154   -0.1153141676
Au    0.0032243461    0.0010598853    5.7264216862
Au    2.8837627057    0.0000498478    2.7689755798
Au    2.8838929287    4.0784945321    2.7394208738
Au   -0.0002276962    4.0782778006   -0.1678254061
Au    0.0000302129    4.0784884912    5.6304598689
Au    1.4466194936    2.0509135214    1.1851364124
Au    4.3265546925    2.0390192978    4.2753313422
Au    4.3263975897    6.1175929279    4.2751202996
Au    1.4466120715    6.1052051413    1.1853441105
Au    4.3209797328    2.0508626511    1.1854170624
Au    1.4420347262    2.0392539036    4.2753444323
Au    1.4414968741    6.1182710146    4.2759137931
Au    4.3208284186    6.1057036604    1.1849876084
Au    0.0002817730    0.0000931421    2.7812683687
Au    2.8837918037   -0.0000808078   -0.1314915882
Au    2.8858442603    0.0002868235    5.7080763291
Au    2.8840698824    4.0781605311   -0.1925807442
Au    2.8840416196    4.0785114590    5.6395208028
Au   -0.0000966132    4.0781457823    2.7308936473
 C   -0.0296151193   -0.0090045805    7.5483554318
 O    2.3119962690    1.1181552670    9.1197553214
 C    2.6589560661    0.0517843289    9.1231543883
 O    3.0484115007   -1.1636986053    9.1432501262
