   18

Au    2.9172041883    0.3200192531    0.0055524644
Au   -0.0370895199    4.9054087262   -1.5268156191
Au    2.8569021239    2.1144826310   -3.8848041072
Au   -0.0457583766   -0.4698646432   -4.9305062288
Au   -0.0816186219    0.4097146404    0.0484917682
Au    2.8615421386    4.8970298406   -1.5390462361
Au   -0.0345598864    2.1109164929   -3.9030211385
Au    2.8654369328   -0.4655242976   -4.9298788201
Au    4.2919082902    2.5823558923   -1.1452068547
Au    1.4087191576    0.0397242521   -2.5254072092
Au    4.2924819889    4.2674986978   -4.7591959361
Au    1.4125554265    2.6064994027   -1.1941800144
Au    4.2997741146    0.0510328828   -2.4784199624
Au    1.4112141090    4.2780246508   -4.7225258395
 C    4.0995651171    0.1444013230    3.6438872581
 O    5.2496185582    0.1440753827    3.9502109908
 C    1.4302959008    0.1791533162    1.2204472397
 O    2.9322802883    0.1398915561    3.4536467874
