   18

Au    2.9043998930    0.3572148998    0.0801787170
Au   -0.0251318516    4.9313193499   -1.4083859067
Au    2.8632720080    2.0560954757   -3.8570815176
Au   -0.0296626604   -0.5562002274   -4.8210813269
Au   -0.0285660658    0.4663330501    0.2133399232
Au    2.8686633555    4.9199156422   -1.4222829272
Au   -0.0213452588    2.0508472084   -3.8780537044
Au    2.8693627122   -0.5527373823   -4.8126328653
Au    4.3061571238    2.5963017204   -1.1164043663
Au    1.4129966317    0.0419942487   -2.4313700335
Au    4.3028540413    4.1852743375   -4.7676757999
Au    1.4201601880    2.6165379539   -1.1831189714
Au    4.3152262338    0.0563583500   -2.3760916186
Au    1.4206960189    4.1934540325   -4.7517626788
 C    4.4538390935    0.2253604271    2.9249539004
 O    5.0107172173    0.1750575947    3.9106590572
 C    1.6819395544    0.2726877205    1.7655815267
 O    1.9989125644    0.2190255985    2.9063754874
