   18

Au    2.9023748082    0.2692168166   -0.1228375082
Au   -0.0517670680    4.8641829458   -1.7020332076
Au    2.8430365699    2.1977644246   -3.9231899835
Au   -0.0632217174   -0.3463165465   -5.0895290887
Au   -0.1061347362    0.3128025437   -0.1189855961
Au    2.8502903661    4.8602913425   -1.7107346987
Au   -0.0494310591    2.1958503468   -3.9323576010
Au    2.8548589833   -0.3436104192   -5.0895673449
Au    4.2797163050    2.5568336048   -1.1719166993
Au    1.3971451292    0.0382412463   -2.6668151801
Au    4.2787696093    4.3878345886   -4.7421548616
Au    1.4005555941    2.5810414831   -1.2238317547
Au    4.2828825753    0.0515518490   -2.6174069171
Au    1.3960704689    4.4028733785   -4.6930753749
 C    4.2440546170    0.0496758676    4.0414629979
 O    5.6521196337    0.0892740585    4.3999729126
 C    1.3954460259    0.0661293042    1.0584173676
 O    3.2136662935    0.0212031643    3.8089206772
