   20

Au    0.0153981806   -0.0023606095   -0.3326054113
Au   -0.3182044550   -0.1720822772    7.4886800186
Au    2.9060888133    1.6431112705    2.1224220266
Au    0.0065175674    3.3073034084    4.6642139156
Au    2.9054231716   -0.0049782645   -0.3378697918
Au    2.6798578085   -0.0605882767    7.0195245229
Au    0.0080977790    1.6550734215    2.1508340905
Au    2.8805637005    3.2798433104    4.5510388891
Au    1.4557696177    4.1302977448    2.1257741877
Au    4.3564918069    0.7846822426    4.6232872807
Au    1.4592228455    2.4959703429   -0.3408812438
Au    1.3129017725    2.4166877984    7.2057562697
Au    4.3511557053    4.1536273283    2.1610818200
Au    1.4389870726    0.7928527351    4.5131248054
Au    4.3434312267    2.4957890033   -0.3274089252
Au    4.1914507199    2.3941498434    7.0687067043
 C    1.2433553486    0.6572621163    8.5452148783
 O    2.3267302253    1.2474132291   10.3821585103
 C    3.7044345347    2.2735722061   10.3676994267
 O    4.3665813934    2.9321484976   10.9937922423
