   20

Au    0.0311799770   -0.0172200550   -0.4730787310
Au   -0.4879296180   -0.1808036980    7.6682947330
Au    2.9181889540    1.6180028690    1.9840516480
Au    0.0292683810    3.2446356820    4.5202497400
Au    2.9178530220   -0.0193503610   -0.4729742150
Au    2.7081026010   -0.0787799440    6.7935570730
Au    0.0260376340    1.6151360340    2.0065094590
Au    2.8922639820    3.2375016370    4.4112438340
Au    1.4711834010    4.0975627450    1.9930038140
Au    4.3653483120    0.7303114810    4.4561182800
Au    1.4744888120    2.4812334820   -0.4784079910
Au    1.2521473470    2.6096155710    7.1641939280
Au    4.3647234940    4.1164619260    2.0219222980
Au    1.4379040140    0.7507713690    4.3666698580
Au    4.3569882860    2.4763667780   -0.4627986510
Au    4.1668177920    2.3943502560    6.8466423510
 C    1.2230507920    0.7494849020    7.8203361620
 O    3.1710012280    1.8347660450   10.9715914380
 C    4.0843325310    2.5485184750   11.1720009660
 O    4.9965160560    3.2648438010   11.3697790080
