   20

Au   -0.0057555680    0.0220579320   -0.1350366260
Au    0.0540580230   -0.0910749270    7.3229304840
Au    2.8831369440    1.6693722520    2.3061959810
Au   -0.0501401830    3.3972283790    4.8376080880
Au    2.8873853080    0.0181276910   -0.1491408440
Au    2.8837595970   -0.0776079690    7.0519245170
Au   -0.0151062530    1.7155762130    2.3445171370
Au    2.8801102070    3.3232208440    4.6719846500
Au    1.4348789010    4.1685844870    2.3058673130
Au    4.3715980430    0.9008581730    4.8317877190
Au    1.4353931410    2.5149552020   -0.1506881710
Au    1.4443870570    2.4169433690    7.0519737400
Au    4.3358173740    4.2110734680    2.3457709290
Au    1.4420011500    0.8249552540    4.6751953910
Au    4.3262300930    2.5200878040   -0.1362343120
Au    4.2721235940    2.4125585110    7.3222625950
 C    0.3466178840   -0.0033223160    9.3266602540
 O    0.7200695270   -0.0002470950   10.4196205620
 C    3.9695574460    2.4895284660    9.3253441190
 O    3.5777147170    2.5302432600   10.4110034790
